** 2 **
* 
* NI Multisim to SPICE Netlist Export
* Generated by: User
* Tue, Sep 15, 2015 14:39:08 
*

*## Multisim Component L1 ##*
lL1 2 3 0.001

*## Multisim Component V1 ##*
vV1 1 0
+   pulse( 0 1 0 1e-009 1e-009
+   {50*0.01/1000}
+   {1/1000})

*## Multisim Component C1 ##*
cC1 0 3 4.7e-009

*## Multisim Component R1 ##*
rR1 1 2 100 vresR1  
.model vresR1 r(  )


